/*--------------------------------*- C++ -*----------------------------------*\
| =========                 |                                                 |
| \\      /  F ield         | OpenFOAM: The Open Source CFD Toolbox           |
|  \\    /   O peration     | Version:  4.1                                   |
|   \\  /    A nd           | Web:      www.OpenFOAM.org                      |
|    \\/     M anipulation  |                                                 |
\*---------------------------------------------------------------------------*/
FoamFile
{
    version     2.0;
    format      ascii;
    class       volScalarField;
    location    "0/fluid";
    object      k;
}
// * * * * * * * * * * * * * * * * * * * * * * * * * * * * * * * * * * * * * //

dimensions      [0 2 -2 0 0 0 0];

internalField   uniform 0.01;

boundaryField
{
    inlet1
    {
        type            fixedValue;
        value           uniform 0.01;
    }
    inlet2
    {
        type            fixedValue;
        value           uniform 0.015;
    }
    inlet3
    {
        type            fixedValue;
        value           uniform 0.015;
    }
    inlet4
    {
        type            fixedValue;
        value           uniform 0.01;
    }
    outlet1
    {
        type            zeroGradient;
    }
    outlet2
    {
        type            zeroGradient;
    }
    outlet3
    {
        type            zeroGradient;
    }
    outlet4
    {
        type            zeroGradient;
    }
    fluid_housing_interface
    {
        type            kqRWallFunction;
        value           uniform 0.01;
    }
}

// ************************************************************************* //
