/*--------------------------------*- C++ -*----------------------------------*\
| =========                 |                                                 |
| \\      /  F ield         | OpenFOAM: The Open Source CFD Toolbox           |
|  \\    /   O peration     | Version:  4.1                                   |
|   \\  /    A nd           | Web:      www.OpenFOAM.org                      |
|    \\/     M anipulation  |                                                 |
\*---------------------------------------------------------------------------*/
FoamFile
{
    version     2.0;
    format      ascii;
    class       volScalarField;
    location    "0/fluid";
    object      T;
}
// * * * * * * * * * * * * * * * * * * * * * * * * * * * * * * * * * * * * * //

dimensions      [0 0 0 1 0 0 0];

internalField   uniform 351;

boundaryField
{
    inlet1
    {
        type            fixedValue;
        value           uniform 351;
    }
    inlet2
    {
        type            fixedValue;
        value           uniform 351;
    }
    inlet3
    {
        type            fixedValue;
        value           uniform 351;
    }
    inlet4
    {
        type            fixedValue;
        value           uniform 351;
    }
    outlet1
    {
        type            zeroGradient;
    }
    outlet2
    {
        type            zeroGradient;
    }
    outlet3
    {
        type            zeroGradient;
    }
    outlet4
    {
        type            zeroGradient;
    }
    fluid_housing_interface
    {
        type            compressible::turbulentTemperatureCoupledBaffleMixed;
        Tnbr            T;
        kappaMethod     fluidThermo;
        value           uniform 351;
    }
}


// ************************************************************************* //
