/*--------------------------------*- C++ -*----------------------------------*\
| =========                 |                                                 |
| \\      /  F ield         | OpenFOAM: The Open Source CFD Toolbox           |
|  \\    /   O peration     | Version:  2.1.x                                 |
|   \\  /    A nd           | Web:      www.OpenFOAM.org                      |
|    \\/     M anipulation  |                                                 |
\*---------------------------------------------------------------------------*/
FoamFile
{
    version     2.0;
    format      ascii;
    class       dictionary;
    object      fvSolution;
}
// * * * * * * * * * * * * * * * * * * * * * * * * * * * * * * * * * * * * * //

solvers
{
    rho
    {
        solver          PCG
        preconditioner  DIC;
        tolerance       1e-7;
        relTol          0;
    }

    p_rgh
    {

        solver           GAMG;
        //preconditioner   DIC;
        tolerance        1e-07;
        relTol           0.01;
        smoother         GaussSeidel;
/*
        solver           GAMG;
        tolerance        1e-7;
        relTol           0.01;

        smoother         GaussSeidel;

        cacheAgglomeration true;
        nCellsInCoarsestLevel 10;
        agglomerator     faceAreaPair;
        mergeLevels      1;

        maxIter          100;

*/
    }

    "(U|k|epsilon|omega)"
    {
        solver           PBiCGStab;
        preconditioner   DILU;
        tolerance        1e-7;
        relTol           0.1;
    }

    h
    {
        solver           PBiCGStab;
        preconditioner   DILU;
        tolerance        1e-7;
        relTol           0.1;
        //maxIter          0;
    }
}

SIMPLE
{
    momentumPredictor on;
    nNonOrthogonalCorrectors 1;

}

relaxationFactors
{
    fields
    {
        rho             1;
        p_rgh           0.4;
    }
    equations
    {
        U               0.5;
        h               0.95;
        //nuTilda         0.7;
        k               0.5;
        epsilon         0.5;
        //omega           0.5;
        "ILambda.*"     0.7;
    }
}

// ************************************************************************* //
