/*--------------------------------*- C++ -*----------------------------------*\
| =========                 |                                                 |
| \\      /  F ield         | OpenFOAM: The Open Source CFD Toolbox           |
|  \\    /   O peration     | Version:  4.x                                   |
|   \\  /    A nd           | Web:      www.OpenFOAM.org                      |
|    \\/     M anipulation  |                                                 |
\*---------------------------------------------------------------------------*/
FoamFile
{
    version     2.0;
    format      ascii;
    class       dictionary;
    object      fvSolution;
}
// * * * * * * * * * * * * * * * * * * * * * * * * * * * * * * * * * * * * * //

solvers
{
    h
    {
        solver           PCG;
        preconditioner   DIC;
        //smoother         DICGaussSeidel;
        tolerance        1e-06;
        relTol           0.01;
        //maxIter          0;
        //smoother GaussSeidel;
    }
}

SIMPLE
{
    nNonOrthogonalCorrectors 1;
}

relaxationFactors
{
    equations
    {
        h               0.95;
    }
}

// ************************************************************************* //
